<?xml version="1.0" encoding="ISO-8859-1"?>
<febio_spec version="4.0">
	<Module type="solid"/>
	<Material>
		<material id="1" name="mat_tet4" type="isotropic elastic">
			<E>1</E>
			<v>0.3</v>
		</material>
		<material id="2" name="mat_tet10" type="isotropic elastic">
			<E>1</E>
			<v>0.3</v>
		</material>
		<material id="3" name="mat_penta6" type="isotropic elastic">
			<E>1</E>
			<v>0.3</v>
		</material>
		<material id="4" name="mat_penta15" type="isotropic elastic">
			<E>1</E>
			<v>0.3</v>
		</material>
		<material id="5" name="mat_pyra5" type="isotropic elastic">
			<E>1</E>
			<v>0.3</v>
		</material>
		<material id="6" name="mat_pyra13" type="isotropic elastic">
			<E>1</E>
			<v>0.3</v>
		</material>
		<material id="7" name="mat_hex8" type="isotropic elastic">
			<E>1</E>
			<v>0.3</v>
		</material>
		<material id="8" name="mat_hex20" type="isotropic elastic">
			<E>1</E>
			<v>0.3</v>
		</material>
		<material id="9" name="mat_hex27" type="isotropic elastic">
			<E>1</E>
			<v>0.3</v>
		</material>
		<material id="10" name="mat_quad4" type="isotropic elastic">
			<E>1</E>
			<v>0.3</v>
		</material>
	</Material>
	<Mesh>
		<Nodes name="SolidNodes">
			<node id="1">0,0,0</node>
			<node id="2">1,0,0</node>
			<node id="3">0,1,0</node>
			<node id="4">0,0,1</node>
			<node id="5">2,0,0</node>
			<node id="6">3,0,0</node>
			<node id="7">2,1,0</node>
			<node id="8">2,0,1</node>
			<node id="9">2.5,0,0</node>
			<node id="10">2.5,0.5,0</node>
			<node id="11">2,0.5,0</node>
			<node id="12">2,0,0.5</node>
			<node id="13">2.5,0,0.5</node>
			<node id="14">2,0.5,0.5</node>
			<node id="15">4,0,0</node>
			<node id="16">5,0,0</node>
			<node id="17">4,1,0</node>
			<node id="18">4,0,1</node>
			<node id="19">5,0,1</node>
			<node id="20">4,1,1</node>
<!-- ... 88 like lines cut -->
		</Nodes>
		<Nodes name="ShellNodes">
			<node id="1001">0,-2,0</node>
			<node id="1003">1,-2,0</node>
			<node id="1005">1,-1,0</node>
			<node id="1007">0,-1,0</node>
		</Nodes>
		<Elements type="tet4" name="part_tet4">
			<elem id="1">1,2,3,4</elem>
		</Elements>
		<Elements type="tet10" name="part_tet10">
			<elem id="2">5,6,7,8,9,10,11,12,13,14</elem>
		</Elements>
		<Elements type="penta6" name="part_penta6">
			<elem id="3">15,16,17,18,19,20</elem>
		</Elements>
		<Elements type="penta15" name="part_penta15">
			<elem id="4">21,22,23,24,25,26,27,28,29,30,31,32,33,34,35</elem>
		</Elements>
		<Elements type="pyra5" name="part_pyra5">
			<elem id="5">36,37,38,39,40</elem>
		</Elements>
		<Elements type="pyra13" name="part_pyra13">
			<elem id="6">41,42,43,44,45,46,47,48,49,50,51,52,53</elem>
		</Elements>
		<Elements type="hex8" name="part_hex8">
			<elem id="7">54,55,56,57,58,59,60,61</elem>
		</Elements>
		<Elements type="hex20" name="part_hex20">
			<elem id="8">62,63,64,65,66,67,68,69,70,71,72,73,74,75,76,77,78,79,80,81</elem>
		</Elements>
		<Elements type="hex27" name="part_hex27">
			<elem id="9">82,83,84,85,86,87,88,89,90,91,92,93,94,95,96,97,98,99,100,101,102,103,104,105,106,107,108</elem>
		</Elements>
		<Elements type="quad4" name="part_quad4">
			<elem id="10">1001,1003,1005,1007</elem>
		</Elements>
		<NodeSet name="hex_bottom">54,55,56,57</NodeSet>
		<NodeSet name="first_ten">1:10</NodeSet>
		<ElementSet name="quadratic">2,4,6,8,9</ElementSet>
		<Surface name="hex_base">
			<quad4 id="1">54,57,56,55</quad4>
		</Surface>
		<Surface name="floating">
			<tri3 id="1">54,55,60</tri3>
		</Surface>
		<Edge name="hex_edge">
			<line2 id="1">54,55</line2>
		</Edge>
		<DiscreteSet name="springs">
			<delem>60,82</delem>
		</DiscreteSet>
	</Mesh>
	<MeshDomains>
		<SolidDomain name="part_tet4" mat="mat_tet4"/>
		<SolidDomain name="part_tet10" mat="mat_tet10"/>
		<SolidDomain name="part_penta6" mat="mat_penta6"/>
		<SolidDomain name="part_penta15" mat="mat_penta15"/>
		<SolidDomain name="part_pyra5" mat="mat_pyra5"/>
		<SolidDomain name="part_pyra13" mat="mat_pyra13"/>
		<SolidDomain name="part_hex8" mat="mat_hex8"/>
		<SolidDomain name="part_hex20" mat="mat_hex20"/>
		<SolidDomain name="part_hex27" mat="mat_hex27"/>
		<ShellDomain name="part_quad4" mat="mat_quad4">
			<shell_thickness>0.1</shell_thickness>
		</ShellDomain>
	</MeshDomains>
	<MeshData>
		<NodeData name="temperature" node_set="hex_bottom" data_type="scalar">
			<node lid="1">10</node>
			<node lid="2">20</node>
			<node lid="3">30</node>
			<node lid="4">40</node>
		</NodeData>
		<ElementData name="fiber" elem_set="part_hex8" data_type="vec3">
			<e lid="1">1,0,0</e>
		</ElementData>
	</MeshData>
</febio_spec>
