<?xml version="1.0" encoding="ISO-8859-1"?>
<febio_spec version="2.5">
	<Module type="solid"/>
	<Material>
		<material id="1" name="soft" type="isotropic elastic"><E>1</E><v>0.3</v></material>
		<material id="2" name="stiff" type="isotropic elastic"><E>9</E><v>0.3</v></material>
	</Material>
	<Geometry>
		<Nodes name="all">
			<node id="1">0,0,0</node>
			<node id="2">1,0,0</node>
			<node id="3">1,1,0</node>
			<node id="4">0,1,0</node>
			<node id="5">0,0,1</node>
			<node id="6">1,0,1</node>
			<node id="7">1,1,1</node>
			<node id="8">0,1,1</node>
			<node id="9">2,0,0</node>
			<node id="10">2,1,0</node>
			<node id="11">2,0,1</node>
			<node id="12">2,1,1</node>
		</Nodes>
		<Elements type="hex8" name="left" mat="1">
			<elem id="1">1,2,3,4,5,6,7,8</elem>
		</Elements>
		<Elements type="hex8" name="right" mat="2">
			<elem id="2">2,9,10,3,6,11,12,7</elem>
		</Elements>
		<NodeSet name="fixed">
			<node id="1"/>
			<node id="2"/>
			<node id="3"/>
			<node id="4"/>
		</NodeSet>
		<ElementSet name="both">
			<elem id="1"/>
			<elem id="2"/>
		</ElementSet>
		<Surface name="top">
			<quad4 id="1">5,6,7,8</quad4>
			<quad4 id="2">6,11,12,7</quad4>
		</Surface>
	</Geometry>
	<MeshData>
		<ElementData name="thickness" elem_set="both" datatype="scalar">
			<elem lid="1">0.5</elem>
			<elem lid="2">1.0</elem>
		</ElementData>
	</MeshData>
</febio_spec>
