*HEADING
one B32 element, clamped at x=0, loaded at x=1
*NODE
1, 0.000000, 0.000000, 0.000000
2, 1.000000, 0.000000, 0.000000
3, 0.500000, 0.000000, 0.000000
*ELEMENT, TYPE=B32, ELSET=E
1, 1, 2, 3
*MATERIAL, NAME=M
*ELASTIC
210000., 0.3
*DENSITY
7.8e-9
*BEAM SECTION, ELSET=E, MATERIAL=M, SECTION=RECT
0.1, 0.1
0.,0.,-1.
*NSET, NSET=FIX
1
*NSET, NSET=LOAD
2
*BOUNDARY
FIX, 1, 6
*STEP
*STATIC
*CLOAD
LOAD, 1, 100.
LOAD, 2, 50.
LOAD, 3, 25.
*NODE FILE
U
*EL FILE
S, E
*NODE PRINT, NSET=LOAD
U
*END STEP
