*HEADING
one C3D15 element, clamped at x=0, loaded at x=1
*NODE
1, 0.000000, 0.000000, 0.000000
2, 1.000000, 0.000000, 0.000000
3, 0.000000, 1.000000, 0.000000
4, 0.000000, 0.000000, 1.000000
5, 1.000000, 0.000000, 1.000000
6, 0.000000, 1.000000, 1.000000
7, 0.500000, 0.000000, 0.000000
8, 0.500000, 0.500000, 0.000000
9, 0.000000, 0.500000, 0.000000
10, 0.500000, 0.000000, 1.000000
11, 0.500000, 0.500000, 1.000000
12, 0.000000, 0.500000, 1.000000
13, 0.000000, 0.000000, 0.500000
14, 1.000000, 0.000000, 0.500000
15, 0.000000, 1.000000, 0.500000
*ELEMENT, TYPE=C3D15, ELSET=E
1, 1, 2, 3, 4, 5, 6, 7, 8, 9, 10, 11, 12, 13, 14, 15
*MATERIAL, NAME=M
*ELASTIC
210000., 0.3
*DENSITY
7.8e-9
*SOLID SECTION, ELSET=E, MATERIAL=M
*NSET, NSET=FIX
1, 3, 4, 6, 9, 12, 13, 15
*NSET, NSET=LOAD
2, 5, 14
*BOUNDARY
FIX, 1, 3
*STEP
*STATIC
*CLOAD
LOAD, 1, 100.
LOAD, 2, 50.
LOAD, 3, 25.
*NODE FILE
U
*EL FILE
S, E
*NODE PRINT, NSET=LOAD
U
*EL PRINT, ELSET=E
S
*END STEP
