*HEADING
one C3D20 element, clamped at x=0, loaded at x=1
*NODE
1, 0.000000, 0.000000, 0.000000
2, 1.000000, 0.000000, 0.000000
3, 1.000000, 1.000000, 0.000000
4, 0.000000, 1.000000, 0.000000
5, 0.000000, 0.000000, 1.000000
6, 1.000000, 0.000000, 1.000000
7, 1.000000, 1.000000, 1.000000
8, 0.000000, 1.000000, 1.000000
9, 0.500000, 0.000000, 0.000000
10, 1.000000, 0.500000, 0.000000
11, 0.500000, 1.000000, 0.000000
12, 0.000000, 0.500000, 0.000000
13, 0.500000, 0.000000, 1.000000
14, 1.000000, 0.500000, 1.000000
15, 0.500000, 1.000000, 1.000000
16, 0.000000, 0.500000, 1.000000
17, 0.000000, 0.000000, 0.500000
18, 1.000000, 0.000000, 0.500000
19, 1.000000, 1.000000, 0.500000
20, 0.000000, 1.000000, 0.500000
*ELEMENT, TYPE=C3D20, ELSET=E
1, 1, 2, 3, 4, 5, 6, 7, 8, 9, 10, 11, 12, 13, 14, 15,
16, 17, 18, 19, 20
*MATERIAL, NAME=M
*ELASTIC
210000., 0.3
*DENSITY
7.8e-9
*SOLID SECTION, ELSET=E, MATERIAL=M
*NSET, NSET=FIX
1, 4, 5, 8, 12, 16, 17, 20
*NSET, NSET=LOAD
2, 3, 6, 7, 10, 14, 18, 19
*BOUNDARY
FIX, 1, 3
*STEP
*STATIC
*CLOAD
LOAD, 1, 100.
LOAD, 2, 50.
LOAD, 3, 25.
*NODE FILE
U
*EL FILE
S, E
*NODE PRINT, NSET=LOAD
U
*EL PRINT, ELSET=E
S
*END STEP
