*HEADING
cantilever, 12x2x2 C3D8I, static
*NODE
1, 0.000000, 0.000000, 0.000000
2, 0.500000, 0.000000, 0.000000
3, 1.000000, 0.000000, 0.000000
4, 1.500000, 0.000000, 0.000000
5, 2.000000, 0.000000, 0.000000
6, 2.500000, 0.000000, 0.000000
7, 3.000000, 0.000000, 0.000000
8, 3.500000, 0.000000, 0.000000
9, 4.000000, 0.000000, 0.000000
10, 4.500000, 0.000000, 0.000000
11, 5.000000, 0.000000, 0.000000
12, 5.500000, 0.000000, 0.000000
13, 6.000000, 0.000000, 0.000000
14, 0.000000, 0.500000, 0.000000
15, 0.500000, 0.500000, 0.000000
16, 1.000000, 0.500000, 0.000000
17, 1.500000, 0.500000, 0.000000
18, 2.000000, 0.500000, 0.000000
19, 2.500000, 0.500000, 0.000000
20, 3.000000, 0.500000, 0.000000
** ... 97 like lines cut
*ELEMENT, TYPE=C3D8I, ELSET=E
1, 1, 2, 15, 14, 40, 41, 54, 53
2, 2, 3, 16, 15, 41, 42, 55, 54
3, 3, 4, 17, 16, 42, 43, 56, 55
4, 4, 5, 18, 17, 43, 44, 57, 56
5, 5, 6, 19, 18, 44, 45, 58, 57
6, 6, 7, 20, 19, 45, 46, 59, 58
7, 7, 8, 21, 20, 46, 47, 60, 59
8, 8, 9, 22, 21, 47, 48, 61, 60
9, 9, 10, 23, 22, 48, 49, 62, 61
10, 10, 11, 24, 23, 49, 50, 63, 62
11, 11, 12, 25, 24, 50, 51, 64, 63
12, 12, 13, 26, 25, 51, 52, 65, 64
13, 14, 15, 28, 27, 53, 54, 67, 66
14, 15, 16, 29, 28, 54, 55, 68, 67
15, 16, 17, 30, 29, 55, 56, 69, 68
16, 17, 18, 31, 30, 56, 57, 70, 69
17, 18, 19, 32, 31, 57, 58, 71, 70
18, 19, 20, 33, 32, 58, 59, 72, 71
19, 20, 21, 34, 33, 59, 60, 73, 72
20, 21, 22, 35, 34, 60, 61, 74, 73
** ... 28 like lines cut
*MATERIAL, NAME=STEEL
*ELASTIC
210000., 0.3
*DENSITY
7.8e-9
*SOLID SECTION, ELSET=E, MATERIAL=STEEL
*NSET, NSET=FIX
1, 14, 27, 40, 53, 66, 79, 92, 105
*NSET, NSET=TIP
13, 26, 39, 52, 65, 78, 91, 104, 117
*BOUNDARY
FIX, 1, 3
*STEP
*STATIC
*CLOAD, OP=NEW
TIP, 3, -20.0
*NODE OUTPUT
U
*ELEMENT OUTPUT
S, E
*END STEP
*STEP
*STATIC
*CLOAD, OP=NEW
TIP, 3, -40.0
*NODE OUTPUT
U
*ELEMENT OUTPUT
S, E
*END STEP
