*HEADING
two C3D8, cantilever, three modes
*NODE
1, 0, 0, 0
2, 1, 0, 0
3, 2, 0, 0
4, 0, 1, 0
5, 1, 1, 0
6, 2, 1, 0
7, 0, 0, 1
8, 1, 0, 1
9, 2, 0, 1
10, 0, 1, 1
11, 1, 1, 1
12, 2, 1, 1
*ELEMENT, TYPE=C3D8, ELSET=E
1, 1, 2, 5, 4, 7, 8, 11, 10
2, 2, 3, 6, 5, 8, 9, 12, 11
*MATERIAL, NAME=M
*ELASTIC
210000., 0.3
*DENSITY
7.8e-9
*SOLID SECTION, ELSET=E, MATERIAL=M
*NSET, NSET=FIX
1, 4, 7, 10
*BOUNDARY
FIX, 1, 3
*STEP
*FREQUENCY
3
*NODE FILE
U
*END STEP
