*HEADING
two DC3D8, transient heat transfer
*NODE
1, 0, 0, 0
2, 1, 0, 0
3, 2, 0, 0
4, 0, 1, 0
5, 1, 1, 0
6, 2, 1, 0
7, 0, 0, 1
8, 1, 0, 1
9, 2, 0, 1
10, 0, 1, 1
11, 1, 1, 1
12, 2, 1, 1
*ELEMENT, TYPE=DC3D8, ELSET=E
1, 1, 2, 5, 4, 7, 8, 11, 10
2, 2, 3, 6, 5, 8, 9, 12, 11
*MATERIAL, NAME=M
*CONDUCTIVITY
50.
*SPECIFIC HEAT
5.e8
*DENSITY
7.8e-9
*SOLID SECTION, ELSET=E, MATERIAL=M
*NSET, NSET=ALL
1,2,3,4,5,6,7,8,9,10,11,12
*INITIAL CONDITIONS, TYPE=TEMPERATURE
ALL, 20.
*NSET, NSET=HOT
1, 4, 7, 10
*STEP
*HEAT TRANSFER
0.5, 2.
*BOUNDARY
HOT, 11, 11, 100.
*NODE FILE
NT
*EL FILE
HFL
*END STEP
