*HEADING
hex8 + wedge6 sharing a face, two static steps
*NODE
1, 0, 0, 0
2, 1, 0, 0
3, 1, 1, 0
4, 0, 1, 0
5, 0, 0, 1
6, 1, 0, 1
7, 1, 1, 1
8, 0, 1, 1
9, 2, 0.5, 0
10, 2, 0.5, 1
*ELEMENT, TYPE=C3D8, ELSET=HEX
1, 1, 2, 3, 4, 5, 6, 7, 8
*ELEMENT, TYPE=C3D6, ELSET=WED
2, 2, 9, 3, 6, 10, 7
*MATERIAL, NAME=M
*ELASTIC
210000., 0.3
*SOLID SECTION, ELSET=HEX, MATERIAL=M
*SOLID SECTION, ELSET=WED, MATERIAL=M
*NSET, NSET=FIX
1, 4, 5, 8
*NSET, NSET=LOAD
9, 10
*BOUNDARY
FIX, 1, 3
*STEP
*STATIC
0.5, 1.
*CLOAD
LOAD, 1, 100.
LOAD, 2, 40.
*NODE FILE
U
*EL FILE
S, E
*NODE PRINT, NSET=LOAD
U
*END STEP
*STEP
*STATIC
1., 1.
*CLOAD
LOAD, 3, 60.
*NODE FILE
U
*EL FILE
S
*NODE PRINT, NSET=LOAD
U
*END STEP
