*HEADING
one S8 element, clamped at x=0, loaded at x=1
*NODE
1, 0.000000, 0.000000, 0.000000
2, 1.000000, 0.000000, 0.000000
3, 1.000000, 1.000000, 0.000000
4, 0.000000, 1.000000, 0.000000
5, 0.500000, 0.000000, 0.000000
6, 1.000000, 0.500000, 0.000000
7, 0.500000, 1.000000, 0.000000
8, 0.000000, 0.500000, 0.000000
*ELEMENT, TYPE=S8, ELSET=E
1, 1, 2, 3, 4, 5, 6, 7, 8
*MATERIAL, NAME=M
*ELASTIC
210000., 0.3
*DENSITY
7.8e-9
*SHELL SECTION, ELSET=E, MATERIAL=M
0.1
*NSET, NSET=FIX
1, 4, 8
*NSET, NSET=LOAD
2, 3, 6
*BOUNDARY
FIX, 1, 6
*STEP
*STATIC
*CLOAD
LOAD, 1, 100.
LOAD, 2, 50.
LOAD, 3, 25.
*NODE FILE
U
*EL FILE
S, E
*NODE PRINT, NSET=LOAD
U
*END STEP
