*HEADING
one T3D2 element, clamped at x=0, loaded at x=1
*NODE
1, 0.000000, 0.000000, 0.000000
2, 1.000000, 0.000000, 0.000000
*ELEMENT, TYPE=T3D2, ELSET=E
1, 1, 2
*MATERIAL, NAME=M
*ELASTIC
210000., 0.3
*DENSITY
7.8e-9
*SOLID SECTION, ELSET=E, MATERIAL=M
0.01
*NSET, NSET=FIX
1
*NSET, NSET=LOAD
2
*BOUNDARY
FIX, 1, 3
*BOUNDARY
2, 2, 3
*STEP
*STATIC
*CLOAD
LOAD, 1, 100.
*NODE FILE
U
*EL FILE
S, E
*NODE PRINT, NSET=LOAD
U
*END STEP
