#RADIOSS STARTER
# meshio++ synthetic deck (tools/gen_radioss_fixtures.py)
/BEGIN
meshio_deck
      2019         0
                  kg                  mm                  ms
                  kg                  mm                  ms
/TITLE
meshio++ Radioss fixture
#include deck_include.inc
/NODE
#  node_ID                  Xc                  Yc                  Zc
1,0.0,0.0,0.0
         2            1.000000            0.000000            0.000000
         3            1.000000            1.000000            0.000000
         4            0.000000            1.000000            0.000000
         5            0.000000            0.000000            1.000000
         6            1.000000            0.000000            1.000000
         7            1.000000            1.000000            1.000000
         8            0.000000            1.000000            1.000000
         9            2.000000            0.000000            0.000000
        10            3.000000            0.000000            0.000000
        11            3.000000            1.000000            0.000000
        12            2.000000            1.000000            0.000000
        13            2.000000            0.000000            1.000000
        14            3.000000            0.000000            1.000000
        15            3.000000            1.000000            1.000000
        16            2.000000            1.000000            1.000000
        17            4.000000            0.000000            0.000000
        18            5.000000            0.000000            0.000000
        19            5.000000            1.000000            0.000000
        20            4.000000            1.000000            0.000000
# ... 68 like lines cut
/PART/1
bricks
        11        21         1
/BRICK/1
         1         1         2         3         4         5         6         7         8
         2         9        10        11        11        13        14        15        15
         3        17        18        19        17        21        22        23        21
         4        25        26        27        27        29        29        29        29
         5        33        34        35        36        41        41        41        41
/PART/2
quadratic
        12        21         2
/BRIC20/2
         6        42        43        44        45        46        47        48        49
        50        51        52        53        58        59        60        61
        54        55        56        57
/TETRA10/2
         7
        62        63        64        65        66        67        68        69        70        71
/TETRA4/2
         8        72        73        74        75
/PENTA6/2
         9        76        77        78        79        80        81
/PART/3
shells
        13        22         2
/SHELL/3
         1         5         6         7         8
         2        82        83        84        84
/SH3N/3
         3        83        85        84
/PART/4

        14        23         0
/BEAM/4
         1        86        87        88
/TRUSS/4
         2        87        88
/SPRING/4
         3        86        88
         4        88         0
/SUBSET/1
solid parts
         2
/SUBSET/2
quadratic subset
/GRNOD/NODE/1
hex nodes
         1         2         3         4         5         6         7         8
/GRNOD/PART/2
quadratic nodes
         2
/GRBRIC/BRIC/3
some bricks
         1         2         3         4        -3
/GRBRIC/PART/4
part 2 solids
         2
/GRSHEL/SHEL/5
quad shell
         1
/GRBRIC/GRBRIC/6
union
         3         4
/GRBRIC/SUBSET/7
subset solids
         1
/GRBRIC/BOX/8
in a box
         1
/SURF/SEG/1
skin
         1         1         4         3         2
         2         5         6         7         8
         3        62        63        64         0
/GRNOD/SURF/9
skin nodes
         1
/MAT/ELAST/21
steel
                7.8e-9
              210000                 0.3
/END
/NODE
        99                 9.0                 9.0                 9.0
